
     RDKit          3D

 17 19  0  0  0  0  0  0  0  0999 V2000
   -3.7114   -2.0365    0.5348 C   0  0  0  0  0  0  0  0  0  0  0  0
   -3.0815   -0.7231    0.2970 C   0  0  0  0  0  0  0  0  0  0  0  0
   -3.8273    0.4331    0.4922 C   0  0  0  0  0  0  0  0  0  0  0  0
   -3.2682    1.5925   -0.0307 C   0  0  0  0  0  0  0  0  0  0  0  0
   -2.0182    1.5246   -0.6308 C   0  0  0  0  0  0  0  0  0  0  0  0
   -1.1883    0.4701   -0.4562 N   0  0  0  0  0  0  0  0  0  0  0  0
    0.1538    0.6143   -0.3693 C   0  0  0  0  0  0  0  0  0  0  0  0
    0.6813    1.7112   -0.7137 O   0  0  0  0  0  0  0  0  0  0  0  0
    0.9421   -0.2166    0.4120 C   0  0  0  0  0  0  0  0  0  0  0  0
    2.3874   -0.1045    0.3268 C   0  0  0  0  0  0  0  0  0  0  0  0
    3.2624    0.3759    1.2358 N   0  0  0  0  0  0  0  0  0  0  0  0
    4.4677    0.0874    0.7474 N   0  0  0  0  0  0  0  0  0  0  0  0
    4.3299    0.2244   -0.5659 N   0  0  0  0  0  0  0  0  0  0  0  0
    3.1035   -0.2325   -0.8163 N   0  0  0  0  0  0  0  0  0  0  0  0
    0.3977   -1.4201    0.7765 C   0  0  0  0  0  0  0  0  0  0  0  0
   -0.9093   -1.6199    0.5006 N   0  0  0  0  0  0  0  0  0  0  0  0
   -1.7216   -0.6801    0.0163 C   0  0  0  0  0  0  0  0  0  0  0  0
  1  2  1  0
  2  3  2  0
  3  4  1  0
  4  5  2  0
  5  6  1  0
  6  7  1  0
  7  8  2  0
  7  9  1  0
  9 10  1  0
 10 11  1  0
 11 12  2  0
 12 13  1  0
 13 14  1  0
  9 15  2  0
 15 16  1  0
 16 17  2  0
 17  2  1  0
 17  6  1  0
 14 10  2  0
M  END
>  <zinc_id>  (1) 
ZINC000005783214

>  <smiles>  (1) 
Cc1cccn2c(=O)c(-c3nn[nH]n3)cnc12

>  <source_line>  (1) 
1

>  <source_data>  (1) 
ZINC5783214

>  <source_name>  (1) 


>  <source_label>  (1) 
ZINC5783214

>  <found_by>  (1) 
ZINC

$$$$

     RDKit          3D

 18 18  0  0  0  0  0  0  0  0999 V2000
    5.3027    1.1838    0.3050 N   0  0  0  0  0  0  0  0  0  0  0  0
    4.4537   -0.0503    0.8355 C   0  0  2  0  0  0  0  0  0  0  0  0
    4.6214   -0.8492   -0.6066 C   0  0  0  0  0  0  0  0  0  0  0  0
    3.6259   -1.8072   -0.6074 O   0  0  0  0  0  0  0  0  0  0  0  0
    3.0495    0.6262    0.3603 C   0  0  0  0  0  0  0  0  0  0  0  0
    2.8693    1.6760    1.0501 O   0  0  0  0  0  0  0  0  0  0  0  0
    1.9613   -0.2705    0.2818 N   0  0  0  0  0  0  0  0  0  0  0  0
    0.8716   -0.2981    1.1756 N   0  0  0  0  0  0  0  0  0  0  0  0
   -0.1150   -1.1444    0.5073 C   0  0  0  0  0  0  0  0  0  0  0  0
   -1.4347   -0.4899    0.5541 C   0  0  0  0  0  0  0  0  0  0  0  0
   -1.6036    0.7384    1.1574 C   0  0  0  0  0  0  0  0  0  0  0  0
   -2.6557    1.5507    0.8559 C   0  0  0  0  0  0  0  0  0  0  0  0
   -3.5615    1.1523   -0.1082 C   0  0  0  0  0  0  0  0  0  0  0  0
   -4.2507    2.0633   -0.8822 O   0  0  0  0  0  0  0  0  0  0  0  0
   -3.5710   -0.1815   -0.4647 C   0  0  0  0  0  0  0  0  0  0  0  0
   -4.5050   -0.5646   -1.4169 O   0  0  0  0  0  0  0  0  0  0  0  0
   -2.5364   -1.0219   -0.0710 C   0  0  0  0  0  0  0  0  0  0  0  0
   -2.5219   -2.3132   -0.5530 O   0  0  0  0  0  0  0  0  0  0  0  0
  2  1  1  6
  2  3  1  0
  3  4  1  0
  2  5  1  0
  5  6  2  0
  5  7  1  0
  7  8  1  0
  8  9  1  0
  9 10  1  0
 10 11  2  0
 11 12  1  0
 12 13  2  0
 13 14  1  0
 13 15  1  0
 15 16  1  0
 15 17  2  0
 17 18  1  0
 17 10  1  0
M  END
>  <zinc_id>  (2) 
ZINC000003830273

>  <smiles>  (2) 
N[C@H](CO)C(=O)NNCc1ccc(O)c(O)c1O

>  <source_line>  (2) 
9

>  <source_data>  (2) 
ZINC3830273

>  <source_name>  (2) 


>  <source_label>  (2) 
ZINC3830273

>  <found_by>  (2) 
ZINC

$$$$

     RDKit          3D

 21 23  0  0  0  0  0  0  0  0999 V2000
   -1.9468    0.2056    2.7455 O   0  0  0  0  0  0  0  0  0  0  0  0
   -1.4336   -0.0835    1.6480 C   0  0  0  0  0  0  0  0  0  0  0  0
   -0.1318   -0.5368    1.4928 C   0  0  0  0  0  0  0  0  0  0  0  0
    0.4721   -0.6355    0.2449 C   0  0  0  0  0  0  0  0  0  0  0  0
    1.8484   -0.1655    0.0335 C   0  0  0  0  0  0  0  0  0  0  0  0
    2.1646    1.1838    0.0111 C   0  0  0  0  0  0  0  0  0  0  0  0
    3.3851    1.5802    0.5425 C   0  0  0  0  0  0  0  0  0  0  0  0
    4.3931    0.6307    0.6323 C   0  0  0  0  0  0  0  0  0  0  0  0
    5.7112    0.9804    0.9009 O   0  0  0  0  0  0  0  0  0  0  0  0
    4.1553   -0.6335    0.1127 C   0  0  0  0  0  0  0  0  0  0  0  0
    5.1815   -1.5514    0.0436 O   0  0  0  0  0  0  0  0  0  0  0  0
    2.8885   -1.0268   -0.2548 C   0  0  0  0  0  0  0  0  0  0  0  0
   -0.3652   -0.7418   -0.7728 O   0  0  0  0  0  0  0  0  0  0  0  0
   -1.6327   -0.4130   -0.6914 C   0  0  0  0  0  0  0  0  0  0  0  0
   -2.5398   -0.6207   -1.7165 C   0  0  0  0  0  0  0  0  0  0  0  0
   -3.8866   -0.3031   -1.5912 C   0  0  0  0  0  0  0  0  0  0  0  0
   -4.8719   -0.9410   -2.3493 O   0  0  0  0  0  0  0  0  0  0  0  0
   -4.2219    0.6127   -0.6031 C   0  0  0  0  0  0  0  0  0  0  0  0
   -3.3811    0.7588    0.4710 C   0  0  0  0  0  0  0  0  0  0  0  0
   -3.6528    1.5582    1.5695 O   0  0  0  0  0  0  0  0  0  0  0  0
   -2.1357    0.1422    0.4731 C   0  0  0  0  0  0  0  0  0  0  0  0
  1  2  2  0
  2  3  1  0
  3  4  2  0
  4  5  1  0
  5  6  2  0
  6  7  1  0
  7  8  2  0
  8  9  1  0
  8 10  1  0
 10 11  1  0
 10 12  2  0
  4 13  1  0
 13 14  1  0
 14 15  2  0
 15 16  1  0
 16 17  1  0
 16 18  2  0
 18 19  1  0
 19 20  1  0
 19 21  2  0
 21  2  1  0
 12  5  1  0
 21 14  1  0
M  END
>  <zinc_id>  (3) 
ZINC000018185774

>  <smiles>  (3) 
O=c1cc(-c2ccc(O)c(O)c2)oc2cc(O)cc(O)c12

>  <source_line>  (3) 
3

>  <source_data>  (3) 
ZINC18185774

>  <source_name>  (3) 


>  <source_label>  (3) 
ZINC18185774

>  <found_by>  (3) 
ZINC

$$$$

     RDKit          3D

 15 15  0  0  0  0  0  0  0  0999 V2000
   -2.8335   -1.4286    1.4206 C   0  0  0  0  0  0  0  0  0  0  0  0
   -2.5727   -0.6779    0.1613 C   0  0  0  0  0  0  0  0  0  0  0  0
   -1.4135   -0.7851   -0.3593 N   0  0  0  0  0  0  0  0  0  0  0  0
   -0.2697   -0.8958    0.4581 N   0  0  0  0  0  0  0  0  0  0  0  0
    0.9930   -1.3012   -0.0550 C   0  0  0  0  0  0  0  0  0  0  0  0
    0.9466   -2.2075   -0.9379 O   0  0  0  0  0  0  0  0  0  0  0  0
    2.1899   -0.4507    0.0227 C   0  0  0  0  0  0  0  0  0  0  0  0
    2.3251    0.3458    1.1517 C   0  0  0  0  0  0  0  0  0  0  0  0
    2.9741    1.5726    1.0831 C   0  0  0  0  0  0  0  0  0  0  0  0
    3.1852    2.1699   -0.1145 N   0  0  0  0  0  0  0  0  0  0  0  0
    3.2383    1.3569   -1.1960 C   0  0  0  0  0  0  0  0  0  0  0  0
    2.5609    0.1552   -1.1718 C   0  0  0  0  0  0  0  0  0  0  0  0
   -3.5677    0.3252   -0.2358 C   0  0  0  0  0  0  0  0  0  0  0  0
   -3.9962    0.4263   -1.4075 O   0  0  0  0  0  0  0  0  0  0  0  0
   -3.7597    1.3949    0.6259 O   0  0  0  0  0  0  0  0  0  0  0  0
  1  2  1  0
  2  3  2  0
  3  4  1  0
  4  5  1  0
  5  6  2  0
  5  7  1  0
  7  8  2  0
  8  9  1  0
  9 10  2  0
 10 11  1  0
 11 12  2  0
  2 13  1  0
 13 14  2  0
 13 15  1  0
 12  7  1  0
M  END
>  <zinc_id>  (4) 
ZINC000004974291

>  <smiles>  (4) 
C/C(=N\NC(=O)c1ccncc1)C(=O)O

>  <source_line>  (4) 
4

>  <source_data>  (4) 
ZINC4974291

>  <source_name>  (4) 


>  <source_label>  (4) 
ZINC4974291

>  <found_by>  (4) 
ZINC

$$$$

     RDKit          3D

 22 24  0  0  0  0  0  0  0  0999 V2000
   -1.3961   -2.9389   -0.6050 O   0  0  0  0  0  0  0  0  0  0  0  0
   -1.0944   -1.8195   -0.0935 C   0  0  0  0  0  0  0  0  0  0  0  0
    0.2003   -1.5068    0.2933 C   0  0  0  0  0  0  0  0  0  0  0  0
    1.2328   -2.3182   -0.1600 O   0  0  0  0  0  0  0  0  0  0  0  0
    0.4538   -0.1937    0.6687 C   0  0  0  0  0  0  0  0  0  0  0  0
    1.7419    0.4466    0.3735 C   0  0  0  0  0  0  0  0  0  0  0  0
    1.8181    1.8114    0.1335 C   0  0  0  0  0  0  0  0  0  0  0  0
    2.8763    2.2403   -0.6606 C   0  0  0  0  0  0  0  0  0  0  0  0
    4.0956    1.5746   -0.5982 C   0  0  0  0  0  0  0  0  0  0  0  0
    5.2511    2.3538   -0.7208 O   0  0  0  0  0  0  0  0  0  0  0  0
    4.1033    0.2990   -0.1015 C   0  0  0  0  0  0  0  0  0  0  0  0
    5.3158   -0.3336    0.1512 O   0  0  0  0  0  0  0  0  0  0  0  0
    2.8879   -0.3120    0.1819 C   0  0  0  0  0  0  0  0  0  0  0  0
   -0.5231    0.4915    1.1915 O   0  0  0  0  0  0  0  0  0  0  0  0
   -1.7962    0.2347    0.9752 C   0  0  0  0  0  0  0  0  0  0  0  0
   -2.7824    1.2079    1.0681 C   0  0  0  0  0  0  0  0  0  0  0  0
   -3.9028    1.1610    0.2467 C   0  0  0  0  0  0  0  0  0  0  0  0
   -4.9249    2.1038    0.3954 O   0  0  0  0  0  0  0  0  0  0  0  0
   -4.3204   -0.1162   -0.1090 C   0  0  0  0  0  0  0  0  0  0  0  0
   -3.3746   -1.1301   -0.1618 C   0  0  0  0  0  0  0  0  0  0  0  0
   -3.7864   -2.3774   -0.5891 O   0  0  0  0  0  0  0  0  0  0  0  0
   -2.0756   -0.8785    0.1913 C   0  0  0  0  0  0  0  0  0  0  0  0
  1  2  2  0
  2  3  1  0
  3  4  1  0
  3  5  2  0
  5  6  1  0
  6  7  2  0
  7  8  1  0
  8  9  2  0
  9 10  1  0
  9 11  1  0
 11 12  1  0
 11 13  2  0
  5 14  1  0
 14 15  1  0
 15 16  2  0
 16 17  1  0
 17 18  1  0
 17 19  2  0
 19 20  1  0
 20 21  1  0
 20 22  2  0
 22  2  1  0
 13  6  1  0
 22 15  1  0
M  END
>  <zinc_id>  (5) 
ZINC000003869685

>  <smiles>  (5) 
O=c1c(O)c(-c2ccc(O)c(O)c2)oc2cc(O)cc(O)c12

>  <source_line>  (5) 
5

>  <source_data>  (5) 
ZINC3869685

>  <source_name>  (5) 


>  <source_label>  (5) 
ZINC3869685

>  <found_by>  (5) 
ZINC

$$$$

     RDKit          3D

 26 28  0  0  0  0  0  0  0  0999 V2000
   -4.3600   -2.1610   -1.0700 N   0  0  0  0  0  0  0  0  0  0  0  0
   -3.6920   -2.0229    0.1145 C   0  0  0  0  0  0  0  0  0  0  0  0
   -4.2660   -2.5401    1.0742 O   0  0  0  0  0  0  0  0  0  0  0  0
   -2.1625   -2.4582   -0.2062 C   0  0  2  0  0  0  0  0  0  0  0  0
   -1.8725   -3.1812    1.2498 C   0  0  0  0  0  0  0  0  0  0  0  0
   -1.9004   -2.0710    2.2063 C   0  0  0  0  0  0  0  0  0  0  0  0
   -2.2210   -0.7934    1.5049 C   0  0  0  0  0  0  0  0  0  0  0  0
   -1.5898   -1.0605    0.2562 N   0  0  0  0  0  0  0  0  0  0  0  0
   -0.3798   -0.6242   -0.3401 C   0  0  0  0  0  0  0  0  0  0  0  0
   -0.1884   -0.7562   -1.5614 O   0  0  0  0  0  0  0  0  0  0  0  0
   -0.0446    0.8306    0.2878 C   0  0  2  0  0  0  0  0  0  0  0  0
   -0.9572    1.6021   -0.8467 C   0  0  0  0  0  0  0  0  0  0  0  0
   -1.3368    2.8882   -0.2599 C   0  0  0  0  0  0  0  0  0  0  0  0
   -0.9320    3.6269    0.8008 C   0  0  0  0  0  0  0  0  0  0  0  0
   -1.4561    4.8693    0.6612 N   0  0  0  0  0  0  0  0  0  0  0  0
   -2.3555    4.8225   -0.3390 C   0  0  0  0  0  0  0  0  0  0  0  0
   -2.1324    3.6952   -1.0026 N   0  0  0  0  0  0  0  0  0  0  0  0
    1.2743    1.0325   -0.5641 N   0  0  0  0  0  0  0  0  0  0  0  0
    2.2831    0.0875   -0.2496 C   0  0  0  0  0  0  0  0  0  0  0  0
    2.2134   -0.7780    0.5999 O   0  0  0  0  0  0  0  0  0  0  0  0
    3.3383   -0.0434   -1.4708 C   0  0  2  0  0  0  0  0  0  0  0  0
    3.4561   -1.6842   -1.3589 C   0  0  0  0  0  0  0  0  0  0  0  0
    4.7340   -1.9260   -0.7039 C   0  0  0  0  0  0  0  0  0  0  0  0
    4.7287   -0.8234    0.3064 C   0  0  0  0  0  0  0  0  0  0  0  0
    5.2512   -0.7985    1.4423 O   0  0  0  0  0  0  0  0  0  0  0  0
    4.5679    0.2676   -0.5311 N   0  0  0  0  0  0  0  0  0  0  0  0
  1  2  1  0
  2  3  2  0
  4  2  1  1
  4  5  1  0
  5  6  1  0
  6  7  1  0
  7  8  1  0
  8  9  1  0
  9 10  2  0
 11  9  1  6
 11 12  1  0
 12 13  1  0
 13 14  2  0
 14 15  1  0
 15 16  1  0
 16 17  2  0
 11 18  1  0
 18 19  1  0
 19 20  2  0
 21 19  1  1
 21 22  1  0
 22 23  1  0
 23 24  1  0
 24 25  2  0
 24 26  1  0
  8  4  1  0
 17 13  1  0
 26 21  1  0
M  END
>  <zinc_id>  (6) 
ZINC000004096261

>  <smiles>  (6) 
NC(=O)[C@@H]1CCCN1C(=O)[C@H](Cc1c[nH]cn1)NC(=O)[C@@H]1CCC(=O)N1

>  <source_line>  (6) 
6

>  <source_data>  (6) 
ZINC4096261

>  <source_name>  (6) 


>  <source_label>  (6) 
ZINC4096261

>  <found_by>  (6) 
ZINC

$$$$

     RDKit          3D

 17 18  0  0  0  0  0  0  0  0999 V2000
   -4.1756   -1.2332   -0.8126 C   0  0  0  0  0  0  0  0  0  0  0  0
   -3.3243   -0.2965   -0.2148 N   0  0  0  0  0  0  0  0  0  0  0  0
   -3.6744    0.9443    0.4138 C   0  0  0  0  0  0  0  0  0  0  0  0
   -2.5912    1.9727   -0.2999 C   0  0  2  0  0  0  0  0  0  0  0  0
   -2.8326    1.3743   -1.6836 O   0  0  0  0  0  0  0  0  0  0  0  0
   -1.3579    0.9591    0.0043 C   0  0  0  0  0  0  0  0  0  0  0  0
   -0.1114    1.2051   -0.4095 C   0  0  0  0  0  0  0  0  0  0  0  0
    0.8635    0.1082   -0.3657 C   0  0  0  0  0  0  0  0  0  0  0  0
    2.0782    0.2173   -0.7499 N   0  0  0  0  0  0  0  0  0  0  0  0
    3.0157   -0.5944   -0.0809 N   0  0  0  0  0  0  0  0  0  0  0  0
    4.1599    0.0380    0.4945 C   0  0  0  0  0  0  0  0  0  0  0  0
    5.0688   -0.8057    1.1854 N   0  0  0  0  0  0  0  0  0  0  0  0
    4.3879    1.2300    0.1969 O   0  0  0  0  0  0  0  0  0  0  0  0
    0.3549   -1.2346   -0.0692 C   0  0  0  0  0  0  0  0  0  0  0  0
    1.1474   -2.1378    0.3030 O   0  0  0  0  0  0  0  0  0  0  0  0
   -1.0963   -1.3923   -0.0163 C   0  0  0  0  0  0  0  0  0  0  0  0
   -1.9125   -0.3546   -0.2106 C   0  0  0  0  0  0  0  0  0  0  0  0
  1  2  1  0
  2  3  1  0
  3  4  1  0
  4  5  1  6
  4  6  1  0
  6  7  2  0
  7  8  1  0
  8  9  2  0
  9 10  1  0
 10 11  1  0
 11 12  1  0
 11 13  2  0
  8 14  1  0
 14 15  2  0
 14 16  1  0
 16 17  2  0
 17  2  1  0
 17  6  1  0
M  END
>  <zinc_id>  (7) 
ZINC000100029428

>  <smiles>  (7) 
CN1C[C@H](O)C2=C/C(=N/NC(N)=O)C(=O)C=C21

>  <source_line>  (7) 
7

>  <source_data>  (7) 
ZINC100029428

>  <source_name>  (7) 


>  <source_label>  (7) 
ZINC100029428

>  <found_by>  (7) 
ZINC

$$$$

     RDKit          3D

 17 18  0  0  0  0  0  0  0  0999 V2000
   -5.0486   -1.3141    0.6028 O   0  0  0  0  0  0  0  0  0  0  0  0
   -4.3719   -0.6766   -0.2604 C   0  0  0  0  0  0  0  0  0  0  0  0
   -3.0115   -1.1306   -0.6885 C   0  0  0  0  0  0  0  0  0  0  0  0
   -2.1794    0.0281   -0.3930 N   0  0  0  0  0  0  0  0  0  0  0  0
   -0.9232   -0.0073    0.2414 N   0  0  0  0  0  0  0  0  0  0  0  0
   -0.1757   -1.0393    0.1222 C   0  0  0  0  0  0  0  0  0  0  0  0
    1.2845   -0.8836    0.1291 C   0  0  0  0  0  0  0  0  0  0  0  0
    2.1108   -1.8952   -0.3443 C   0  0  0  0  0  0  0  0  0  0  0  0
    3.3955   -1.3952   -0.2480 C   0  0  0  0  0  0  0  0  0  0  0  0
    3.2474   -0.0273   -0.1112 C   0  0  0  0  0  0  0  0  0  0  0  0
    4.2676    0.9376   -0.2409 N   0  0  0  0  0  0  0  0  0  0  0  0
    5.3978    0.6376   -0.6409 O   0  0  0  0  0  0  0  0  0  0  0  0
    3.9321    2.2765   -0.2673 O   0  0  0  0  0  0  0  0  0  0  0  0
    1.9942    0.2075    0.2334 O   0  0  0  0  0  0  0  0  0  0  0  0
   -3.0008    1.1801   -0.5996 C   0  0  0  0  0  0  0  0  0  0  0  0
   -2.5599    2.3662   -0.6016 O   0  0  0  0  0  0  0  0  0  0  0  0
   -4.3591    0.7355   -0.5027 N   0  0  0  0  0  0  0  0  0  0  0  0
  1  2  2  0
  2  3  1  0
  3  4  1  0
  4  5  1  0
  5  6  2  0
  6  7  1  0
  7  8  2  0
  8  9  1  0
  9 10  2  0
 10 11  1  0
 11 12  2  0
 11 13  1  0
 10 14  1  0
  4 15  1  0
 15 16  2  0
 15 17  1  0
 17  2  1  0
 14  7  1  0
M  CHG  2  11   1  13  -1
M  END
>  <zinc_id>  (8) 
ZINC000003875368

>  <smiles>  (8) 
O=C1CN(/N=C/c2ccc([N+](=O)[O-])o2)C(=O)N1

>  <source_line>  (8) 
8

>  <source_data>  (8) 
ZINC3875368

>  <source_name>  (8) 


>  <source_label>  (8) 
ZINC3875368

>  <found_by>  (8) 
ZINC

$$$$

     RDKit          3D

 18 18  0  0  0  0  0  0  0  0999 V2000
    5.3027    1.1838    0.3050 N   0  0  0  0  0  0  0  0  0  0  0  0
    4.4537   -0.0503    0.8355 C   0  0  2  0  0  0  0  0  0  0  0  0
    4.6214   -0.8492   -0.6066 C   0  0  0  0  0  0  0  0  0  0  0  0
    3.6259   -1.8072   -0.6074 O   0  0  0  0  0  0  0  0  0  0  0  0
    3.0495    0.6262    0.3603 C   0  0  0  0  0  0  0  0  0  0  0  0
    2.8693    1.6760    1.0501 O   0  0  0  0  0  0  0  0  0  0  0  0
    1.9613   -0.2705    0.2818 N   0  0  0  0  0  0  0  0  0  0  0  0
    0.8716   -0.2981    1.1756 N   0  0  0  0  0  0  0  0  0  0  0  0
   -0.1150   -1.1444    0.5073 C   0  0  0  0  0  0  0  0  0  0  0  0
   -1.4347   -0.4899    0.5541 C   0  0  0  0  0  0  0  0  0  0  0  0
   -1.6036    0.7384    1.1574 C   0  0  0  0  0  0  0  0  0  0  0  0
   -2.6557    1.5507    0.8559 C   0  0  0  0  0  0  0  0  0  0  0  0
   -3.5615    1.1523   -0.1082 C   0  0  0  0  0  0  0  0  0  0  0  0
   -4.2507    2.0633   -0.8822 O   0  0  0  0  0  0  0  0  0  0  0  0
   -3.5710   -0.1815   -0.4647 C   0  0  0  0  0  0  0  0  0  0  0  0
   -4.5050   -0.5646   -1.4169 O   0  0  0  0  0  0  0  0  0  0  0  0
   -2.5364   -1.0219   -0.0710 C   0  0  0  0  0  0  0  0  0  0  0  0
   -2.5219   -2.3132   -0.5530 O   0  0  0  0  0  0  0  0  0  0  0  0
  2  1  1  6
  2  3  1  0
  3  4  1  0
  2  5  1  0
  5  6  2  0
  5  7  1  0
  7  8  1  0
  8  9  1  0
  9 10  1  0
 10 11  2  0
 11 12  1  0
 12 13  2  0
 13 14  1  0
 13 15  1  0
 15 16  1  0
 15 17  2  0
 17 18  1  0
 17 10  1  0
M  END
>  <zinc_id>  (9) 
ZINC000003830273

>  <smiles>  (9) 
N[C@H](CO)C(=O)NNCc1ccc(O)c(O)c1O

>  <source_line>  (9) 
9

>  <source_data>  (9) 
ZINC3830273

>  <source_name>  (9) 


>  <source_label>  (9) 
ZINC3830273

>  <found_by>  (9) 
ZINC

$$$$

     RDKit          3D

 17 18  0  0  0  0  0  0  0  0999 V2000
    2.6835    1.5424   -2.3377 C   0  0  0  0  0  0  0  0  0  0  0  0
    2.5872    0.6268   -1.2923 N   0  0  0  0  0  0  0  0  0  0  0  0
    3.6705    0.5813   -0.3784 C   0  0  0  0  0  0  0  0  0  0  0  0
    3.1298   -0.5096    0.7380 C   0  0  1  0  0  0  0  0  0  0  0  0
    3.4294    0.4615    1.8722 O   0  0  0  0  0  0  0  0  0  0  0  0
    1.5759   -0.0215    0.5966 C   0  0  0  0  0  0  0  0  0  0  0  0
    0.6221   -0.6504    1.2848 C   0  0  0  0  0  0  0  0  0  0  0  0
   -0.7090   -0.9275    0.7211 C   0  0  0  0  0  0  0  0  0  0  0  0
   -1.8029   -0.5974    1.2861 N   0  0  0  0  0  0  0  0  0  0  0  0
   -3.0702   -0.5929    0.6708 N   0  0  0  0  0  0  0  0  0  0  0  0
   -3.7234    0.6401    0.3556 C   0  0  0  0  0  0  0  0  0  0  0  0
   -4.8410    1.1629    1.0826 N   0  0  0  0  0  0  0  0  0  0  0  0
   -2.9629    1.4814   -0.2129 O   0  0  0  0  0  0  0  0  0  0  0  0
   -0.7371   -0.9739   -0.7475 C   0  0  0  0  0  0  0  0  0  0  0  0
   -1.7854   -1.4746   -1.2350 O   0  0  0  0  0  0  0  0  0  0  0  0
    0.4368   -0.5931   -1.5346 C   0  0  0  0  0  0  0  0  0  0  0  0
    1.4967   -0.1555   -0.8696 C   0  0  0  0  0  0  0  0  0  0  0  0
  1  2  1  0
  2  3  1  0
  3  4  1  0
  4  5  1  1
  4  6  1  0
  6  7  2  0
  7  8  1  0
  8  9  2  0
  9 10  1  0
 10 11  1  0
 11 12  1  0
 11 13  2  0
  8 14  1  0
 14 15  2  0
 14 16  1  0
 16 17  2  0
 17  2  1  0
 17  6  1  0
M  END
>  <zinc_id>  (10) 
ZINC000100045148

>  <smiles>  (10) 
CN1C[C@@H](O)C2=C/C(=N/NC(N)=O)C(=O)C=C21

>  <source_line>  (10) 
17

>  <source_data>  (10) 
ZINC100045148

>  <source_name>  (10) 


>  <source_label>  (10) 
ZINC100045148

>  <found_by>  (10) 
ZINC

$$$$

     RDKit          3D

 17 18  0  0  0  0  0  0  0  0999 V2000
    3.8752   -1.2360   -0.3555 C   0  0  0  0  0  0  0  0  0  0  0  0
    3.9386    0.3564   -0.8505 C   0  0  2  0  0  0  0  0  0  0  0  0
    3.7250    0.8882    0.5744 O   0  0  0  0  0  0  0  0  0  0  0  0
    2.2347    0.4149   -1.2625 C   0  0  2  0  0  0  0  0  0  0  0  0
    2.1567    1.8670   -0.8637 O   0  0  0  0  0  0  0  0  0  0  0  0
    1.7425   -0.2693    0.2599 C   0  0  1  0  0  0  0  0  0  0  0  0
    0.9791    1.0862    0.8284 C   0  0  0  0  0  0  0  0  0  0  0  0
   -0.0001    0.5815    1.7736 N   0  0  0  0  0  0  0  0  0  0  0  0
   -1.1154   -0.0935    1.1727 C   0  0  0  0  0  0  0  0  0  0  0  0
   -2.3994    0.1889    1.4794 N   0  0  0  0  0  0  0  0  0  0  0  0
   -3.4298   -0.1792    0.6765 C   0  0  0  0  0  0  0  0  0  0  0  0
   -4.7731    0.2522    0.9274 N   0  0  0  0  0  0  0  0  0  0  0  0
   -3.1083   -0.5564   -0.5685 N   0  0  0  0  0  0  0  0  0  0  0  0
   -1.8488   -0.7585   -1.0002 C   0  0  0  0  0  0  0  0  0  0  0  0
   -1.6343   -0.7922   -2.2494 O   0  0  0  0  0  0  0  0  0  0  0  0
   -0.8050   -0.5136   -0.1167 C   0  0  0  0  0  0  0  0  0  0  0  0
    0.4623   -0.8905   -0.4253 N   0  0  0  0  0  0  0  0  0  0  0  0
  2  1  1  1
  2  3  1  0
  2  4  1  0
  4  5  1  1
  4  6  1  0
  6  7  1  1
  7  8  1  0
  8  9  1  0
  9 10  1  0
 10 11  2  0
 11 12  1  0
 11 13  1  0
 13 14  1  0
 14 15  2  0
 14 16  1  0
 16 17  1  0
 17  6  1  0
 16  9  2  0
M  END
>  <zinc_id>  (11) 
ZINC000013585233

>  <smiles>  (11) 
C[C@H](O)[C@H](O)[C@H]1CNc2nc(N)[nH]c(=O)c2N1

>  <source_line>  (11) 
11

>  <source_data>  (11) 
ZINC13585233

>  <source_name>  (11) 


>  <source_label>  (11) 
ZINC13585233

>  <found_by>  (11) 
ZINC

$$$$

     RDKit          3D

 19 21  0  0  0  0  0  0  0  0999 V2000
    3.8636    0.7199   -1.2664 N   0  0  0  0  0  0  0  0  0  0  0  0
    3.2350    0.7079   -0.6031 C   0  0  0  0  0  0  0  0  0  0  0  0
    3.0787    1.7050    0.3022 N   0  0  0  0  0  0  0  0  0  0  0  0
    1.9971    1.7972    1.1057 C   0  0  0  0  0  0  0  0  0  0  0  0
    1.2383    0.6974    1.3626 N   0  0  0  0  0  0  0  0  0  0  0  0
    1.2809   -0.2720    0.4511 C   0  0  0  0  0  0  0  0  0  0  0  0
    2.3892   -0.3756   -0.3878 C   0  0  0  0  0  0  0  0  0  0  0  0
    2.2743   -1.6001   -0.9454 N   0  0  0  0  0  0  0  0  0  0  0  0
    1.1086   -2.1559   -0.5268 C   0  0  0  0  0  0  0  0  0  0  0  0
    0.4351   -1.1561    0.0248 N   0  0  0  0  0  0  0  0  0  0  0  0
   -1.0871   -1.2739    0.3952 C   0  0  2  0  0  0  0  0  0  0  0  0
   -1.5261   -0.8468   -0.9759 O   0  0  0  0  0  0  0  0  0  0  0  0
   -2.9829   -0.7395   -0.6928 C   0  0  2  0  0  0  0  0  0  0  0  0
   -3.1407    0.5145   -1.7520 C   0  0  0  0  0  0  0  0  0  0  0  0
   -3.8532    1.4973   -1.1574 O   0  0  0  0  0  0  0  0  0  0  0  0
   -2.9397    0.2852    0.6659 C   0  0  1  0  0  0  0  0  0  0  0  0
   -3.0486   -0.8943    1.5972 O   0  0  0  0  0  0  0  0  0  0  0  0
   -1.2675    0.3623    0.8763 C   0  0  2  0  0  0  0  0  0  0  0  0
   -1.0551    1.0274   -0.4515 O   0  0  0  0  0  0  0  0  0  0  0  0
  1  2  1  0
  2  3  2  0
  3  4  1  0
  4  5  2  0
  5  6  1  0
  6  7  2  0
  7  8  1  0
  8  9  2  0
  9 10  1  0
 11 10  1  6
 11 12  1  0
 12 13  1  0
 13 14  1  6
 14 15  1  0
 13 16  1  0
 16 17  1  1
 16 18  1  0
 18 19  1  6
  7  2  1  0
 18 11  1  0
 10  6  1  0
M  END
>  <zinc_id>  (12) 
ZINC000000970363

>  <smiles>  (12) 
Nc1ncnc2c1ncn2[C@@H]1O[C@H](CO)[C@@H](O)[C@@H]1O

>  <source_line>  (12) 
12

>  <source_data>  (12) 
ZINC970363

>  <source_name>  (12) 


>  <source_label>  (12) 
ZINC970363

>  <found_by>  (12) 
ZINC

$$$$

     RDKit          3D

 21 23  0  0  0  0  0  0  0  0999 V2000
    2.2887   -1.9781   -1.5853 O   0  0  0  0  0  0  0  0  0  0  0  0
    1.6422   -1.6501   -0.6803 C   0  0  0  0  0  0  0  0  0  0  0  0
    0.1524   -1.7340   -0.8534 C   0  0  0  0  0  0  0  0  0  0  0  0
   -0.1644   -0.0819   -0.7655 C   0  0  1  0  0  0  0  0  0  0  0  0
   -1.7918   -0.3275   -0.7581 C   0  0  0  0  0  0  0  0  0  0  0  0
   -2.3168    0.6268   -1.6316 C   0  0  0  0  0  0  0  0  0  0  0  0
   -3.4143    1.4063   -1.2752 C   0  0  0  0  0  0  0  0  0  0  0  0
   -4.2021    0.9085   -0.2419 C   0  0  0  0  0  0  0  0  0  0  0  0
   -5.4765    1.4031   -0.0194 O   0  0  0  0  0  0  0  0  0  0  0  0
   -3.7844   -0.2168    0.4586 C   0  0  0  0  0  0  0  0  0  0  0  0
   -4.6924   -1.0735    1.0883 O   0  0  0  0  0  0  0  0  0  0  0  0
   -2.4236   -0.4996    0.4067 C   0  0  0  0  0  0  0  0  0  0  0  0
    0.0075   -0.0980    0.8045 O   0  0  0  0  0  0  0  0  0  0  0  0
    1.3671   -0.0197    1.1240 C   0  0  0  0  0  0  0  0  0  0  0  0
    1.9132    0.8651    2.0127 C   0  0  0  0  0  0  0  0  0  0  0  0
    3.2362    1.2945    1.9774 C   0  0  0  0  0  0  0  0  0  0  0  0
    3.5052    2.6499    2.2012 O   0  0  0  0  0  0  0  0  0  0  0  0
    4.0191    0.6723    1.0107 C   0  0  0  0  0  0  0  0  0  0  0  0
    3.5922   -0.4634    0.3383 C   0  0  0  0  0  0  0  0  0  0  0  0
    4.3060   -0.9063   -0.7785 O   0  0  0  0  0  0  0  0  0  0  0  0
    2.2365   -0.7776    0.3468 C   0  0  0  0  0  0  0  0  0  0  0  0
  1  2  2  0
  2  3  1  0
  3  4  1  0
  4  5  1  1
  5  6  2  0
  6  7  1  0
  7  8  2  0
  8  9  1  0
  8 10  1  0
 10 11  1  0
 10 12  2  0
  4 13  1  0
 13 14  1  0
 14 15  2  0
 15 16  1  0
 16 17  1  0
 16 18  2  0
 18 19  1  0
 19 20  1  0
 19 21  2  0
 21  2  1  0
 12  5  1  0
 21 14  1  0
M  END
>  <zinc_id>  (13) 
ZINC000000058117

>  <smiles>  (13) 
O=C1C[C@@H](c2ccc(O)c(O)c2)Oc2cc(O)cc(O)c21

>  <source_line>  (13) 
13

>  <source_data>  (13) 
ZINC58117

>  <source_name>  (13) 


>  <source_label>  (13) 
ZINC58117

>  <found_by>  (13) 
ZINC

$$$$

     RDKit          3D

 20 22  0  0  0  0  0  0  0  0999 V2000
    0.3239   -2.1980    0.0990 C   0  0  0  0  0  0  0  0  0  0  0  0
    0.1661   -0.8620    0.2026 C   0  0  2  0  0  0  0  0  0  0  0  0
    1.2535   -0.4210    1.1665 C   0  0  0  0  0  0  0  0  0  0  0  0
    2.3511    0.2448    0.4780 N   0  0  0  0  0  0  0  0  0  0  0  0
    3.0139    1.2233    1.1421 C   0  0  0  0  0  0  0  0  0  0  0  0
    4.1628    1.4313    0.3926 C   0  0  0  0  0  0  0  0  0  0  0  0
    4.2181    0.4131   -0.4992 N   0  0  0  0  0  0  0  0  0  0  0  0
    3.2523   -0.4520   -0.2129 N   0  0  0  0  0  0  0  0  0  0  0  0
   -1.1343   -0.7095    1.2048 C   0  0  2  0  0  0  0  0  0  0  0  0
   -2.1469   -1.6629    0.3854 C   0  0  0  0  0  0  0  0  0  0  0  0
   -2.6997   -2.4241    1.2417 O   0  0  0  0  0  0  0  0  0  0  0  0
   -1.9289   -2.1357   -0.8249 O   0  0  0  0  0  0  0  0  0  0  0  0
   -1.6707    0.6283    0.5995 N   0  0  0  0  0  0  0  0  0  0  0  0
   -2.4119    1.7748    0.4080 C   0  0  0  0  0  0  0  0  0  0  0  0
   -3.2936    2.3612    1.0702 O   0  0  0  0  0  0  0  0  0  0  0  0
   -2.0071    1.9007   -1.0210 C   0  0  0  0  0  0  0  0  0  0  0  0
   -1.9476    0.3129   -0.8605 C   0  0  1  0  0  0  0  0  0  0  0  0
   -0.1102    0.0642   -1.1599 S   0  0  0  0  0  0  0  0  0  0  0  0
    0.5943    1.3048   -1.4056 O   0  0  0  0  0  0  0  0  0  0  0  0
    0.0151   -0.7943   -2.4064 O   0  0  0  0  0  0  0  0  0  0  0  0
  2  1  1  6
  2  3  1  0
  3  4  1  0
  4  5  1  0
  5  6  2  0
  6  7  1  0
  7  8  2  0
  2  9  1  0
  9 10  1  6
 10 11  2  0
 10 12  1  0
  9 13  1  0
 13 14  1  0
 14 15  2  0
 14 16  1  0
 17 16  1  6
 17 18  1  0
 18 19  2  0
 18 20  2  0
 18  2  1  0
  8  4  1  0
 17 13  1  0
M  END
>  <zinc_id>  (14) 
ZINC000003787060

>  <smiles>  (14) 
C[C@]1(Cn2ccnn2)[C@H](C(=O)O)N2C(=O)C[C@H]2S1(=O)=O

>  <source_line>  (14) 
14

>  <source_data>  (14) 
ZINC3787060

>  <source_name>  (14) 


>  <source_label>  (14) 
ZINC3787060

>  <found_by>  (14) 
ZINC

$$$$

     RDKit          3D

 15 15  0  0  0  0  0  0  0  0999 V2000
   -5.1136    1.0012    0.2474 N   0  0  0  0  0  0  0  0  0  0  0  0
   -4.0035    0.1118    0.4152 C   0  0  0  0  0  0  0  0  0  0  0  0
   -4.2697   -1.2945    0.3548 N   0  0  0  0  0  0  0  0  0  0  0  0
   -2.8432    0.5522    0.0270 N   0  0  0  0  0  0  0  0  0  0  0  0
   -2.0501   -0.2805   -0.8277 C   0  0  0  0  0  0  0  0  0  0  0  0
   -2.7262   -0.7960   -1.9803 N   0  0  0  0  0  0  0  0  0  0  0  0
   -1.1330   -0.9735   -0.2187 N   0  0  0  0  0  0  0  0  0  0  0  0
   -0.2145   -0.1852    0.5984 C   0  0  0  0  0  0  0  0  0  0  0  0
    0.8781    0.3095   -0.3353 C   0  0  0  0  0  0  0  0  0  0  0  0
    2.2112    0.1894    0.2937 C   0  0  0  0  0  0  0  0  0  0  0  0
    3.0389   -0.8985    0.1474 C   0  0  0  0  0  0  0  0  0  0  0  0
    4.3704   -0.8443    0.5209 C   0  0  0  0  0  0  0  0  0  0  0  0
    4.9448    0.3564    0.8387 C   0  0  0  0  0  0  0  0  0  0  0  0
    4.1317    1.4322    1.0788 C   0  0  0  0  0  0  0  0  0  0  0  0
    2.7787    1.3198    0.8581 C   0  0  0  0  0  0  0  0  0  0  0  0
  1  2  1  0
  2  3  1  0
  2  4  2  0
  4  5  1  0
  5  6  1  0
  5  7  2  0
  7  8  1  0
  8  9  1  0
  9 10  1  0
 10 11  2  0
 11 12  1  0
 12 13  2  0
 13 14  1  0
 14 15  2  0
 15 10  1  0
M  END
>  <zinc_id>  (15) 
ZINC000005851063

>  <smiles>  (15) 
NC(N)=N/C(N)=N\CCc1ccccc1

>  <source_line>  (15) 
15

>  <source_data>  (15) 
ZINC5851063

>  <source_name>  (15) 


>  <source_label>  (15) 
ZINC5851063

>  <found_by>  (15) 
ZINC

$$$$

     RDKit          3D

 17 18  0  0  0  0  0  0  0  0999 V2000
    2.6835    1.5424   -2.3377 C   0  0  0  0  0  0  0  0  0  0  0  0
    2.5872    0.6268   -1.2923 N   0  0  0  0  0  0  0  0  0  0  0  0
    3.6705    0.5813   -0.3784 C   0  0  0  0  0  0  0  0  0  0  0  0
    3.1298   -0.5096    0.7380 C   0  0  1  0  0  0  0  0  0  0  0  0
    3.4294    0.4615    1.8722 O   0  0  0  0  0  0  0  0  0  0  0  0
    1.5759   -0.0215    0.5966 C   0  0  0  0  0  0  0  0  0  0  0  0
    0.6221   -0.6504    1.2848 C   0  0  0  0  0  0  0  0  0  0  0  0
   -0.7090   -0.9275    0.7211 C   0  0  0  0  0  0  0  0  0  0  0  0
   -1.8029   -0.5974    1.2861 N   0  0  0  0  0  0  0  0  0  0  0  0
   -3.0702   -0.5929    0.6708 N   0  0  0  0  0  0  0  0  0  0  0  0
   -3.7234    0.6401    0.3556 C   0  0  0  0  0  0  0  0  0  0  0  0
   -4.8410    1.1629    1.0826 N   0  0  0  0  0  0  0  0  0  0  0  0
   -2.9629    1.4814   -0.2129 O   0  0  0  0  0  0  0  0  0  0  0  0
   -0.7371   -0.9739   -0.7475 C   0  0  0  0  0  0  0  0  0  0  0  0
   -1.7854   -1.4746   -1.2350 O   0  0  0  0  0  0  0  0  0  0  0  0
    0.4368   -0.5931   -1.5346 C   0  0  0  0  0  0  0  0  0  0  0  0
    1.4967   -0.1555   -0.8696 C   0  0  0  0  0  0  0  0  0  0  0  0
  1  2  1  0
  2  3  1  0
  3  4  1  0
  4  5  1  1
  4  6  1  0
  6  7  2  0
  7  8  1  0
  8  9  2  0
  9 10  1  0
 10 11  1  0
 11 12  1  0
 11 13  2  0
  8 14  1  0
 14 15  2  0
 14 16  1  0
 16 17  2  0
 17  2  1  0
 17  6  1  0
M  END
>  <zinc_id>  (16) 
ZINC000100045148

>  <smiles>  (16) 
CN1C[C@@H](O)C2=C/C(=N/NC(N)=O)C(=O)C=C21

>  <source_line>  (16) 
17

>  <source_data>  (16) 
ZINC100045148

>  <source_name>  (16) 


>  <source_label>  (16) 
ZINC100045148

>  <found_by>  (16) 
ZINC

$$$$

     RDKit          3D

 17 18  0  0  0  0  0  0  0  0999 V2000
    2.6835    1.5424   -2.3377 C   0  0  0  0  0  0  0  0  0  0  0  0
    2.5872    0.6268   -1.2923 N   0  0  0  0  0  0  0  0  0  0  0  0
    3.6705    0.5813   -0.3784 C   0  0  0  0  0  0  0  0  0  0  0  0
    3.1298   -0.5096    0.7380 C   0  0  1  0  0  0  0  0  0  0  0  0
    3.4294    0.4615    1.8722 O   0  0  0  0  0  0  0  0  0  0  0  0
    1.5759   -0.0215    0.5966 C   0  0  0  0  0  0  0  0  0  0  0  0
    0.6221   -0.6504    1.2848 C   0  0  0  0  0  0  0  0  0  0  0  0
   -0.7090   -0.9275    0.7211 C   0  0  0  0  0  0  0  0  0  0  0  0
   -1.8029   -0.5974    1.2861 N   0  0  0  0  0  0  0  0  0  0  0  0
   -3.0702   -0.5929    0.6708 N   0  0  0  0  0  0  0  0  0  0  0  0
   -3.7234    0.6401    0.3556 C   0  0  0  0  0  0  0  0  0  0  0  0
   -4.8410    1.1629    1.0826 N   0  0  0  0  0  0  0  0  0  0  0  0
   -2.9629    1.4814   -0.2129 O   0  0  0  0  0  0  0  0  0  0  0  0
   -0.7371   -0.9739   -0.7475 C   0  0  0  0  0  0  0  0  0  0  0  0
   -1.7854   -1.4746   -1.2350 O   0  0  0  0  0  0  0  0  0  0  0  0
    0.4368   -0.5931   -1.5346 C   0  0  0  0  0  0  0  0  0  0  0  0
    1.4967   -0.1555   -0.8696 C   0  0  0  0  0  0  0  0  0  0  0  0
  1  2  1  0
  2  3  1  0
  3  4  1  0
  4  5  1  1
  4  6  1  0
  6  7  2  0
  7  8  1  0
  8  9  2  0
  9 10  1  0
 10 11  1  0
 11 12  1  0
 11 13  2  0
  8 14  1  0
 14 15  2  0
 14 16  1  0
 16 17  2  0
 17  2  1  0
 17  6  1  0
M  END
>  <zinc_id>  (17) 
ZINC000100045148

>  <smiles>  (17) 
CN1C[C@@H](O)C2=C/C(=N/NC(N)=O)C(=O)C=C21

>  <source_line>  (17) 
17

>  <source_data>  (17) 
ZINC100045148

>  <source_name>  (17) 


>  <source_label>  (17) 
ZINC100045148

>  <found_by>  (17) 
ZINC

$$$$

     RDKit          3D

 22 25  0  0  0  0  0  0  0  0999 V2000
    5.0443    0.5160    1.9112 N   0  0  0  0  0  0  0  0  0  0  0  0
    4.3983    0.4232    0.9488 C   0  0  0  0  0  0  0  0  0  0  0  0
    4.1735   -0.6988   -0.1585 C   0  0  2  0  0  0  0  0  0  0  0  0
    4.6183    0.3222   -1.3718 C   0  0  0  0  0  0  0  0  0  0  0  0
    3.6152   -0.0260   -2.4292 C   0  0  0  0  0  0  0  0  0  0  0  0
    2.5602   -0.8748   -1.7387 C   0  0  0  0  0  0  0  0  0  0  0  0
    2.6680   -0.3211   -0.3909 N   0  0  0  0  0  0  0  0  0  0  0  0
    1.7360    0.0150    0.5700 C   0  0  0  0  0  0  0  0  0  0  0  0
    1.7114   -0.5345    1.7080 O   0  0  0  0  0  0  0  0  0  0  0  0
    0.9163    1.2285    0.3134 C   0  0  0  0  0  0  0  0  0  0  0  0
   -0.3237    1.3014    0.9927 N   0  0  0  0  0  0  0  0  0  0  0  0
   -1.4063    0.6212    0.4125 C   0  0  0  0  0  0  0  0  0  0  0  0
   -1.0341    0.0170   -1.0055 C   0  0  0  0  0  0  0  0  0  0  0  0
   -2.5037   -0.3746   -0.4407 C   0  0  2  0  0  0  0  0  0  0  0  0
   -2.5415   -1.9718   -0.4856 C   0  0  0  0  0  0  0  0  0  0  0  0
   -2.9336   -1.4754    1.0741 C   0  0  2  0  0  0  0  0  0  0  0  0
   -4.0993   -0.3758    0.7655 C   0  0  0  0  0  0  0  0  0  0  0  0
   -3.8529    0.6546   -0.2502 C   0  0  0  0  0  0  0  0  0  0  0  0
   -4.9572    1.3962   -0.4004 O   0  0  0  0  0  0  0  0  0  0  0  0
   -3.4763    0.0584   -1.6674 C   0  0  0  0  0  0  0  0  0  0  0  0
   -2.6603    1.5177    0.2477 C   0  0  0  0  0  0  0  0  0  0  0  0
   -1.6524   -0.5121    1.3948 C   0  0  0  0  0  0  0  0  0  0  0  0
  1  2  3  0
  3  2  1  1
  3  4  1  0
  4  5  1  0
  5  6  1  0
  6  7  1  0
  7  8  1  0
  8  9  2  0
  8 10  1  0
 10 11  1  0
 11 12  1  0
 12 13  1  0
 14 13  1  6
 14 15  1  0
 16 15  1  6
 16 17  1  0
 17 18  1  0
 18 19  1  0
 18 20  1  0
 18 21  1  0
 16 22  1  0
  7  3  1  0
 21 12  1  0
 22 12  1  0
 20 14  1  0
M  END
>  <zinc_id>  (18) 
ZINC000100003507

>  <smiles>  (18) 
N#C[C@@H]1CCCN1C(=O)CNC12C[C@@H]3C[C@H](CC(O)(C3)C1)C2

>  <source_line>  (18) 
18

>  <source_data>  (18) 
ZINC100003507

>  <source_name>  (18) 


>  <source_label>  (18) 
ZINC100003507

>  <found_by>  (18) 
ZINC

$$$$

     RDKit          3D

 20 22  0  0  0  0  0  0  0  0999 V2000
    5.8876    1.0272    0.5852 O   0  0  0  0  0  0  0  0  0  0  0  0
    4.6547    0.6274    0.4412 C   0  0  0  0  0  0  0  0  0  0  0  0
    3.6440    0.9286    1.3261 C   0  0  0  0  0  0  0  0  0  0  0  0
    2.5505    0.0804    1.4590 C   0  0  0  0  0  0  0  0  0  0  0  0
    2.1241   -0.5558    0.3362 C   0  0  0  0  0  0  0  0  0  0  0  0
    0.8028   -1.1255    0.0739 C   0  0  0  0  0  0  0  0  0  0  0  0
   -0.2485   -0.2866    1.0565 C   0  0  1  0  0  0  0  0  0  0  0  0
    0.3096    1.1253    0.5605 N   0  0  0  0  0  0  0  0  0  0  0  0
    0.3161    1.0844   -0.8681 C   0  0  0  0  0  0  0  0  0  0  0  0
   -1.0239    1.6967   -1.2851 C   0  0  0  0  0  0  0  0  0  0  0  0
   -1.9478    0.9098   -0.3960 C   0  0  0  0  0  0  0  0  0  0  0  0
   -3.3254    1.0218   -0.4885 C   0  0  0  0  0  0  0  0  0  0  0  0
   -4.1352   -0.1087   -0.5153 C   0  0  0  0  0  0  0  0  0  0  0  0
   -5.5281   -0.0004   -0.5289 O   0  0  0  0  0  0  0  0  0  0  0  0
   -3.5945   -1.3816   -0.3584 C   0  0  0  0  0  0  0  0  0  0  0  0
   -4.1427   -2.3721   -1.1822 O   0  0  0  0  0  0  0  0  0  0  0  0
   -2.2727   -1.4304    0.0712 C   0  0  0  0  0  0  0  0  0  0  0  0
   -1.4250   -0.3358   -0.0792 C   0  0  0  0  0  0  0  0  0  0  0  0
    3.0589   -0.7564   -0.6724 C   0  0  0  0  0  0  0  0  0  0  0  0
    4.2954   -0.1482   -0.6543 C   0  0  0  0  0  0  0  0  0  0  0  0
  1  2  1  0
  2  3  2  0
  3  4  1  0
  4  5  2  0
  5  6  1  0
  7  6  1  6
  7  8  1  0
  8  9  1  0
  9 10  1  0
 10 11  1  0
 11 12  2  0
 12 13  1  0
 13 14  1  0
 13 15  2  0
 15 16  1  0
 15 17  1  0
 17 18  2  0
  5 19  1  0
 19 20  2  0
 20  2  1  0
 18  7  1  0
 18 11  1  0
M  END
>  <zinc_id>  (19) 
ZINC000000896041

>  <smiles>  (19) 
Oc1ccc(C[C@H]2NCCc3cc(O)c(O)cc32)cc1

>  <source_line>  (19) 
19

>  <source_data>  (19) 
ZINC896041

>  <source_name>  (19) 


>  <source_label>  (19) 
ZINC896041

>  <found_by>  (19) 
ZINC

$$$$
